599173
                    3D
 Schrodinger Suite 2021-1.
 31 33  0  0  1  0            999 V2000
   46.6747    8.7402    0.4422 C   0  0  0  0  0  0
   45.6933    9.7303    0.5455 C   0  0  0  0  0  0
   46.2572   10.8690    1.1185 C   0  0  0  0  0  0
   47.5767   10.5506    1.3461 N   0  0  0  0  0  0
   47.8426    9.2665    0.9536 C   0  0  0  0  0  0
   45.6700   12.2132    1.3886 C   0  0  0  0  0  0
   44.6100   12.6472    0.5887 C   0  0  0  0  0  0
   44.1000   13.9348    0.7278 C   0  0  0  0  0  0
   44.6292   14.8053    1.6710 C   0  0  0  0  0  0
   45.7003   14.3910    2.4759 C   0  0  0  0  0  0
   46.1909   13.0822    2.3569 C   0  0  0  0  0  0
   46.2946   15.2960    3.3625 N   0  0  0  0  0  0
   47.6793   15.7461    3.3458 C   0  0  0  0  0  0
   47.8922   16.7306    4.4907 C   0  0  0  0  0  0
   48.9000   17.4025    4.6645 O   0  0  0  0  0  0
   46.7681   16.7513    5.3110 N   0  0  0  0  0  0
   45.6976   15.4550    4.9629 S   0  0  0  0  0  0
   44.3064   15.9098    4.9460 O   0  0  0  0  0  0
   46.0940   14.2821    5.7460 O   0  0  0  0  0  0
   44.1001   16.0688    1.7460 O   0  0  0  0  0  0
   48.2696   11.1758    1.7427 H   0  0  0  0  0  0
   46.5516    7.7525    0.0268 H   0  0  0  0  0  0
   44.6684    9.6281    0.2207 H   0  0  0  0  0  0
   48.8358    8.8546    1.0564 H   0  0  0  0  0  0
   44.1962   12.0008   -0.1718 H   0  0  0  0  0  0
   43.3001   14.2625    0.0805 H   0  0  0  0  0  0
   47.0204   12.7635    2.9709 H   0  0  0  0  0  0
   48.4006   14.9335    3.3844 H   0  0  0  0  0  0
   47.8751   16.2872    2.4275 H   0  0  0  0  0  0
   46.6957   17.3237    6.1464 H   0  0  0  0  0  0
   43.3609   16.1613    1.1411 H   0  0  0  0  0  0
  1  5  2  0  0  0
  1  2  1  0  0  0
  1 22  1  0  0  0
  2  3  2  0  0  0
  2 23  1  0  0  0
  3  4  1  0  0  0
  3  6  1  0  0  0
  4 21  1  0  0  0
  4  5  1  0  0  0
  5 24  1  0  0  0
  6 11  1  0  0  0
  6  7  2  0  0  0
  7  8  1  0  0  0
  7 25  1  0  0  0
  8  9  2  0  0  0
  8 26  1  0  0  0
  9 10  1  0  0  0
  9 20  1  0  0  0
 10 11  2  0  0  0
 10 12  1  0  0  0
 11 27  1  0  0  0
 12 17  1  0  0  0
 12 13  1  0  0  0
 13 14  1  0  0  0
 13 28  1  0  0  0
 13 29  1  0  0  0
 14 15  2  0  0  0
 14 16  1  0  0  0
 16 17  1  0  0  0
 16 30  1  0  0  0
 17 18  2  0  0  0
 17 19  2  0  0  0
 20 31  1  0  0  0
M  END
> <s_m_entry_id>
24785

> <s_m_entry_name>
ligand_docking-pose.1

> <s_m_Source_Path>
/home/csk/Desktop/cluster/DUD-E-result/ptn1

> <s_m_Source_File>
ligand_docking-pose.sdf

> <i_m_Source_File_Index>
1

> <i_lp_mmshare_version>
53161

> <i_f3d_flags>
0

> <r_lp_tautomer_probability>
0.999999999997365

> <s_lp_Force_Field>
OPLS_2005

> <r_lp_Energy>
18.961461

> <b_lp_Chiralities_Consistent>
1

> <s_lp_Variant>
599173-1

> <s_i_glide_gridfile>
glide-grid_2azr

> <i_i_glide_lignum>
354

> <i_i_glide_rotatable_bonds>
3

> <r_i_docking_score>
-7.7488944487828

> <r_i_glide_ligand_efficiency>
-0.38744472243914

> <r_i_glide_ligand_efficiency_sa>
-1.05168677899534

> <r_i_glide_ligand_efficiency_ln>
-1.9392927048865

> <r_i_glide_gscore>
-7.7488944487828

> <r_i_glide_lipo>
-1.60561077419724

> <r_i_glide_hbond>
-0.808459394873265

> <r_i_glide_metal>
0

> <r_i_glide_rewards>
-2.07676188444221

> <r_i_glide_evdw>
-28.2077159881592

> <r_i_glide_ecoul>
-14.1247797012329

> <r_i_glide_erotb>
0.424777513334038

> <r_i_glide_esite>
-0.153737154011226

> <r_i_glide_emodel>
-55.5341307513141

> <r_i_glide_energy>
-42.3324956893921

> <r_i_glide_einternal>
4.57338237762451

> <i_i_glide_confnum>
6

> <i_i_glide_posenum>
22

> <r_i_glide_eff_state_penalty>
0

> <s_user_duplicate_titles>
599173

> <s_m_subgroup_title>
dock_pv

> <s_m_subgroupid>
dock_pv1

> <b_m_subgroup_collapsed>
0

$$$$
427528
                    3D
 Schrodinger Suite 2021-1.
 30 31  0  0  1  0            999 V2000
   45.5741    9.9383   -0.1514 C   0  0  0  0  0  0
   44.9009   11.1581   -0.1616 C   0  0  0  0  0  0
   45.1737   12.1358    0.8259 C   0  0  0  0  0  0
   44.5094   13.3823    0.8496 C   0  0  0  0  0  0
   44.7741   14.3199    1.8459 C   0  0  0  0  0  0
   45.6994   14.0439    2.8718 C   0  0  0  0  0  0
   46.3885   12.8209    2.8361 C   0  0  0  0  0  0
   46.1476   11.8575    1.8253 C   0  0  0  0  0  0
   46.8375   10.6183    1.7861 C   0  0  0  0  0  0
   46.5412    9.6592    0.8128 C   0  0  0  0  0  0
   47.2358    8.2986    0.7774 C   0  0  0  0  0  0
   48.3114    8.1035    1.7671 C   0  0  0  0  0  0
   49.1560    7.9468    2.5442 N   0  0  0  0  0  0
   45.8898   14.9869    4.0825 C   0  0  0  0  0  0
   44.7349   15.4765    4.5446 F   0  0  0  0  0  0
   46.4863   14.3236    5.0786 F   0  0  0  0  0  0
   46.9815   16.4632    3.8603 P   0  0  0  0  0  0
   47.0011   17.4747    4.9460 O   0  0  0  0  0  0
   48.4369   15.8377    3.5147 O   0  0  0  0  0  0
   46.5000   17.0799    2.4519 O   0  0  0  0  0  0
   43.7918   15.9521    1.7456 Br  0  0  0  0  0  0
   45.3427    9.2015   -0.9084 H   0  0  0  0  0  0
   44.1591   11.3608   -0.9209 H   0  0  0  0  0  0
   43.7781   13.6043    0.0853 H   0  0  0  0  0  0
   47.0987   12.5635    3.6066 H   0  0  0  0  0  0
   47.5897   10.4227    2.5357 H   0  0  0  0  0  0
   47.6639    8.1333   -0.2112 H   0  0  0  0  0  0
   46.5002    7.5132    0.9477 H   0  0  0  0  0  0
   48.5295   15.3959    2.6473 H   0  0  0  0  0  0
   46.7631   16.5885    1.6478 H   0  0  0  0  0  0
  1 10  1  0  0  0
  1  2  2  0  0  0
  1 22  1  0  0  0
  2  3  1  0  0  0
  2 23  1  0  0  0
  3  8  2  0  0  0
  3  4  1  0  0  0
  4  5  2  0  0  0
  4 24  1  0  0  0
  5  6  1  0  0  0
  5 21  1  0  0  0
  6  7  2  0  0  0
  6 14  1  0  0  0
  7  8  1  0  0  0
  7 25  1  0  0  0
  8  9  1  0  0  0
  9 10  2  0  0  0
  9 26  1  0  0  0
 10 11  1  0  0  0
 11 12  1  0  0  0
 11 27  1  0  0  0
 11 28  1  0  0  0
 12 13  3  0  0  0
 14 15  1  0  0  0
 14 16  1  0  0  0
 14 17  1  0  0  0
 17 18  2  0  0  0
 17 19  1  0  0  0
 17 20  1  0  0  0
 19 29  1  0  0  0
 20 30  1  0  0  0
M  END
> <s_m_entry_id>
24786

> <s_m_entry_name>
ligand_docking-pose.2

> <s_m_Source_Path>
/home/csk/Desktop/cluster/DUD-E-result/ptn1

> <s_m_Source_File>
ligand_docking-pose.sdf

> <i_m_Source_File_Index>
2

> <i_lp_mmshare_version>
53161

> <i_f3d_flags>
0

> <r_lp_tautomer_probability>
1

> <s_lp_Force_Field>
OPLS_2005

> <r_lp_Energy>
12.670682

> <b_lp_Chiralities_Consistent>
1

> <s_lp_Variant>
427528-1

> <s_i_glide_gridfile>
glide-grid_2azr

> <i_i_glide_lignum>
13

> <i_i_glide_rotatable_bonds>
5

> <r_i_docking_score>
-6.92950701347008

> <r_i_glide_ligand_efficiency>
-0.329976524450956

> <r_i_glide_ligand_efficiency_sa>
-0.910380210022068

> <r_i_glide_ligand_efficiency_ln>
-1.71330660669311

> <r_i_glide_gscore>
-6.92950701347008

> <r_i_glide_lipo>
-2.09977477972365

> <r_i_glide_hbond>
-0.231048891250667

> <r_i_glide_metal>
0

> <r_i_glide_rewards>
-0.999900427136442

> <r_i_glide_evdw>
-33.5022735595703

> <r_i_glide_ecoul>
-14.8989744186401

> <r_i_glide_erotb>
0.410493646784984

> <r_i_glide_esite>
-0.0993167213697688

> <r_i_glide_emodel>
-67.5780776495623

> <r_i_glide_energy>
-48.4012479782104

> <r_i_glide_einternal>
3.01465058326721

> <i_i_glide_confnum>
7

> <i_i_glide_posenum>
353

> <r_i_glide_eff_state_penalty>
0

> <s_user_duplicate_titles>
427528

> <s_m_subgroup_title>
dock_pv

> <s_m_subgroupid>
dock_pv1

> <b_m_subgroup_collapsed>
0

$$$$
427645
                    3D
 Schrodinger Suite 2021-1.
 39 41  0  0  1  0            999 V2000
   48.8530    5.8261    4.0179 C   0  0  0  0  0  0
   48.1986    6.8209    3.2923 C   0  0  0  0  0  0
   48.9300    7.8538    2.6837 C   0  0  0  0  0  0
   50.3220    7.8768    2.8190 C   0  0  0  0  0  0
   50.9708    6.8946    3.5692 C   0  0  0  0  0  0
   50.2393    5.8656    4.1598 C   0  0  0  0  0  0
   52.3101    6.9534    3.7446 F   0  0  0  0  0  0
   48.3111    8.9355    2.0348 N   0  0  0  0  0  0
   47.1392    8.9134    1.3623 C   0  0  0  0  0  0
   46.6172    7.8824    0.9458 O   0  0  0  0  0  0
   46.4436   10.2412    1.1785 C   0  0  0  0  0  0
   45.5674   10.4591    0.1091 C   0  0  0  0  0  0
   44.9001   11.6805    0.0094 C   0  0  0  0  0  0
   45.1021   12.6683    1.0062 C   0  0  0  0  0  0
   44.4999   13.9466    0.9729 C   0  0  0  0  0  0
   44.7542   14.8844    1.9759 C   0  0  0  0  0  0
   45.5800   14.5548    3.0698 C   0  0  0  0  0  0
   46.1952   13.2986    3.0979 C   0  0  0  0  0  0
   45.9829   12.3557    2.0774 C   0  0  0  0  0  0
   46.6436   11.1737    2.1458 N   0  0  0  0  0  0
   45.8769   15.5064    4.2395 C   0  0  0  0  0  0
   44.8603   16.3290    4.5056 F   0  0  0  0  0  0
   46.1910   14.8312    5.3486 F   0  0  0  0  0  0
   47.3415   16.5765    3.8926 P   0  0  0  0  0  0
   47.8662   17.4817    4.9459 O   0  0  0  0  0  0
   48.4422   15.5241    3.3461 O   0  0  0  0  0  0
   46.9000   17.3434    2.5464 O   0  0  0  0  0  0
   43.9792   16.6149    1.7453 Br  0  0  0  0  0  0
   48.2808    5.0358    4.4824 H   0  0  0  0  0  0
   47.1224    6.7923    3.2293 H   0  0  0  0  0  0
   50.9031    8.6681    2.3663 H   0  0  0  0  0  0
   50.7436    5.1036    4.7352 H   0  0  0  0  0  0
   48.7540    9.8386    2.1465 H   0  0  0  0  0  0
   45.4055    9.6943   -0.6383 H   0  0  0  0  0  0
   44.2311   11.8768   -0.8165 H   0  0  0  0  0  0
   43.8494   14.2008    0.1474 H   0  0  0  0  0  0
   46.8610   13.0250    3.9047 H   0  0  0  0  0  0
   48.2988   15.1805    2.4399 H   0  0  0  0  0  0
   47.6251   17.5449    1.9219 H   0  0  0  0  0  0
  1  6  1  0  0  0
  1  2  2  0  0  0
  1 29  1  0  0  0
  2  3  1  0  0  0
  2 30  1  0  0  0
  3  4  2  0  0  0
  3  8  1  0  0  0
  4  5  1  0  0  0
  4 31  1  0  0  0
  5  6  2  0  0  0
  5  7  1  0  0  0
  6 32  1  0  0  0
  8  9  1  0  0  0
  8 33  1  0  0  0
  9 10  2  0  0  0
  9 11  1  0  0  0
 11 20  1  0  0  0
 11 12  2  0  0  0
 12 13  1  0  0  0
 12 34  1  0  0  0
 13 14  2  0  0  0
 13 35  1  0  0  0
 14 19  1  0  0  0
 14 15  1  0  0  0
 15 16  2  0  0  0
 15 36  1  0  0  0
 16 17  1  0  0  0
 16 28  1  0  0  0
 17 18  2  0  0  0
 17 21  1  0  0  0
 18 19  1  0  0  0
 18 37  1  0  0  0
 19 20  2  0  0  0
 21 22  1  0  0  0
 21 23  1  0  0  0
 21 24  1  0  0  0
 24 25  2  0  0  0
 24 26  1  0  0  0
 24 27  1  0  0  0
 26 38  1  0  0  0
 27 39  1  0  0  0
M  END
> <s_m_entry_id>
24787

> <s_m_entry_name>
ligand_docking-pose.3

> <s_m_Source_Path>
/home/csk/Desktop/cluster/DUD-E-result/ptn1

> <s_m_Source_File>
ligand_docking-pose.sdf

> <i_m_Source_File_Index>
3

> <i_lp_mmshare_version>
53161

> <i_f3d_flags>
0

> <r_lp_tautomer_probability>
1

> <s_lp_Force_Field>
OPLS_2005

> <r_lp_Energy>
25.558011

> <b_lp_Chiralities_Consistent>
1

> <s_lp_Variant>
427645-1

> <s_i_glide_gridfile>
glide-grid_2azr

> <i_i_glide_lignum>
322

> <i_i_glide_rotatable_bonds>
7

> <r_i_docking_score>
-6.879524547149

> <r_i_glide_ligand_efficiency>
-0.245697305255321

> <r_i_glide_ligand_efficiency_sa>
-0.746081726729178

> <r_i_glide_ligand_efficiency_ln>
-1.58799625709978

> <r_i_glide_gscore>
-6.879524547149

> <r_i_glide_lipo>
-1.80021890062992

> <r_i_glide_hbond>
-0.447345312035908

> <r_i_glide_metal>
0

> <r_i_glide_rewards>
-0.50078121639103

> <r_i_glide_evdw>
-40.948974609375

> <r_i_glide_ecoul>
-15.737325668335

> <r_i_glide_erotb>
0.448248530832567

> <r_i_glide_esite>
-0.171380068205716

> <r_i_glide_emodel>
-75.9785294354852

> <r_i_glide_energy>
-56.68630027771

> <r_i_glide_einternal>
9.38722133636475

> <i_i_glide_confnum>
23

> <i_i_glide_posenum>
340

> <r_i_glide_eff_state_penalty>
0

> <s_user_duplicate_titles>
427645

> <s_m_subgroup_title>
dock_pv

> <s_m_subgroupid>
dock_pv1

> <b_m_subgroup_collapsed>
0

$$$$
388687
                    3D
 Schrodinger Suite 2021-1.
 44 46  0  0  1  0            999 V2000
   48.6456    5.3775    4.1413 C   0  0  0  0  0  0
   48.1786    6.6820    4.2734 C   0  0  0  0  0  0
   48.3548    7.5843    3.2285 C   0  0  0  0  0  0
   48.9946    7.1834    2.0456 C   0  0  0  0  0  0
   49.4529    5.8681    1.9271 C   0  0  0  0  0  0
   49.2792    4.9650    2.9725 C   0  0  0  0  0  0
   49.2382    8.1323    0.8663 C   0  0  0  0  0  0
   48.7064    9.4819    1.0486 N   0  0  0  0  0  0
   47.3603    9.8182    0.8505 C   0  0  0  0  0  0
   46.4113    8.9408    0.3142 C   0  0  0  0  0  0
   45.0955    9.3629    0.1247 C   0  0  0  0  0  0
   44.7198   10.6581    0.4780 C   0  0  0  0  0  0
   45.6552   11.5400    1.0251 C   0  0  0  0  0  0
   46.9687   11.1067    1.2093 C   0  0  0  0  0  0
   45.2947   12.9358    1.3934 C   0  0  0  0  0  0
   45.5723   13.6647    2.5461 C   0  0  0  0  0  0
   45.1010   14.9815    2.5179 C   0  0  0  0  0  0
   44.5000   15.3078    1.3036 C   0  0  0  0  0  0
   44.5000   13.9345    0.2231 S   0  0  0  0  0  0
   43.9276   16.5754    0.9257 C   0  0  0  0  0  0
   43.7000   17.4820    1.7253 O   0  0  0  0  0  0
   43.7000   16.6820   -0.4149 O   0  0  0  0  0  0
   45.2741   15.8333    3.5773 O   0  0  0  0  0  0
   46.3141   16.7885    3.3623 C   0  0  0  0  0  0
   47.2783   16.7076    4.5460 C   0  0  0  0  0  0
   46.9000   16.6820    5.7173 O   0  0  0  0  0  0
   48.5833   16.6820    4.1460 O   0  0  0  0  0  0
   46.5000   12.9703    4.0484 Br  0  0  0  0  0  0
   48.5000    4.6722    4.9460 H   0  0  0  0  0  0
   47.6758    6.9896    5.1786 H   0  0  0  0  0  0
   47.9827    8.5909    3.3460 H   0  0  0  0  0  0
   49.9405    5.5400    1.0205 H   0  0  0  0  0  0
   49.6263    3.9466    2.8752 H   0  0  0  0  0  0
   48.8350    7.6844   -0.0428 H   0  0  0  0  0  0
   50.3140    8.2136    0.7063 H   0  0  0  0  0  0
   49.3108   10.1889    1.4590 H   0  0  0  0  0  0
   46.6791    7.9336    0.0341 H   0  0  0  0  0  0
   44.3697    8.6839   -0.2978 H   0  0  0  0  0  0
   43.7000   10.9753    0.3268 H   0  0  0  0  0  0
   47.7000   11.7886    1.6192 H   0  0  0  0  0  0
   43.8947   15.8645   -0.8789 H   0  0  0  0  0  0
   45.8855   17.7904    3.3460 H   0  0  0  0  0  0
   46.8528   16.6642    2.4191 H   0  0  0  0  0  0
   48.6915   16.5943    3.1942 H   0  0  0  0  0  0
  1  6  1  0  0  0
  1  2  2  0  0  0
  1 29  1  0  0  0
  2  3  1  0  0  0
  2 30  1  0  0  0
  3  4  2  0  0  0
  3 31  1  0  0  0
  4  5  1  0  0  0
  4  7  1  0  0  0
  5  6  2  0  0  0
  5 32  1  0  0  0
  6 33  1  0  0  0
  7  8  1  0  0  0
  7 34  1  0  0  0
  7 35  1  0  0  0
  8  9  1  0  0  0
  8 36  1  0  0  0
  9 14  1  0  0  0
  9 10  2  0  0  0
 10 11  1  0  0  0
 10 37  1  0  0  0
 11 12  2  0  0  0
 11 38  1  0  0  0
 12 13  1  0  0  0
 12 39  1  0  0  0
 13 14  2  0  0  0
 13 15  1  0  0  0
 14 40  1  0  0  0
 15 19  1  0  0  0
 15 16  2  0  0  0
 16 17  1  0  0  0
 16 28  1  0  0  0
 17 18  2  0  0  0
 17 23  1  0  0  0
 18 19  1  0  0  0
 18 20  1  0  0  0
 20 21  2  0  0  0
 20 22  1  0  0  0
 22 41  1  0  0  0
 23 24  1  0  0  0
 24 25  1  0  0  0
 24 42  1  0  0  0
 24 43  1  0  0  0
 25 26  2  0  0  0
 25 27  1  0  0  0
 27 44  1  0  0  0
M  END
> <s_m_entry_id>
24788

> <s_m_entry_name>
ligand_docking-pose.4

> <s_m_Source_Path>
/home/csk/Desktop/cluster/DUD-E-result/ptn1

> <s_m_Source_File>
ligand_docking-pose.sdf

> <i_m_Source_File_Index>
4

> <i_lp_mmshare_version>
53161

> <i_f3d_flags>
0

> <r_lp_tautomer_probability>
1

> <s_lp_Force_Field>
OPLS_2005

> <r_lp_Energy>
20.900799

> <b_lp_Chiralities_Consistent>
1

> <s_lp_Variant>
388687-1

> <s_i_glide_gridfile>
glide-grid_2azr

> <i_i_glide_lignum>
305

> <i_i_glide_rotatable_bonds>
10

> <r_i_docking_score>
-6.85706437850732

> <r_i_glide_ligand_efficiency>
-0.244895156375262

> <r_i_glide_ligand_efficiency_sa>
-0.743645930288892

> <r_i_glide_ligand_efficiency_ln>
-1.58281179071807

> <r_i_glide_gscore>
-6.85706437850732

> <r_i_glide_lipo>
-1.92277173219488

> <r_i_glide_hbond>
-0.630945606022396

> <r_i_glide_metal>
0

> <r_i_glide_rewards>
-0.557091222362542

> <r_i_glide_evdw>
-44.2618522644043

> <r_i_glide_ecoul>
-14.937108039856

> <r_i_glide_erotb>
0.753943607375258

> <r_i_glide_esite>
-0.0465406061041582

> <r_i_glide_emodel>
-81.0524703334594

> <r_i_glide_energy>
-59.1989603042603

> <r_i_glide_einternal>
6.82340097427368

> <i_i_glide_confnum>
46

> <i_i_glide_posenum>
38

> <r_i_glide_eff_state_penalty>
0

> <s_user_duplicate_titles>
388687

> <s_m_subgroup_title>
dock_pv

> <s_m_subgroupid>
dock_pv1

> <b_m_subgroup_collapsed>
0

$$$$
