CHEMBL2334_lig250
                    3D
 Schrodinger Suite 2021-1.
 74 76  0  0  1  0            999 V2000
   40.7806   37.7831   25.7981 N   0  0  0  0  0  0
   40.4806   36.4634   25.4554 C   0  0  0  0  0  0
   38.6149   38.6756   26.7181 C   0  0  0  0  0  0
   41.1485   35.9861   24.2026 C   0  0  0  0  0  0
   40.1304   38.4441   26.9699 C   0  0  1  0  0  0
   37.7889   37.6236   26.8596 N   0  0  0  0  0  0
   42.0029   36.6638   23.5040 N   0  0  0  0  0  0
   36.3131   37.6115   26.8522 C   0  0  1  0  0  0
   42.9870   32.3090   20.7792 N   0  0  0  0  0  0
   35.8215   36.1472   26.6360 C   0  0  0  0  0  0
   44.0151   32.9149   20.1496 C   0  0  0  0  0  0
   35.8026   38.2284   28.1698 C   0  0  0  0  0  0
   41.7199   38.4640   25.0379 C   0  0  0  0  0  0
   36.1478   35.5125   25.2762 C   0  0  0  0  0  0
   42.3184   37.9223   23.9452 C   0  0  0  0  0  0
   39.7292   35.7351   26.1111 O   0  0  0  0  0  0
   38.2070   39.8034   26.4380 O   0  0  0  0  0  0
   45.0862   33.2810   20.6236 O   0  0  0  0  0  0
   36.4371   39.0553   28.8289 O   0  0  0  0  0  0
   37.1698   35.7103   24.6282 O   0  0  0  0  0  0
   40.7710   34.7082   23.8118 N   0  0  0  0  0  0
   33.1512   38.9239   27.9724 S   0  0  0  0  0  0
   35.1500   34.6781   24.8694 O   0  0  0  0  0  0
   42.9979   32.0714   22.2200 C   0  0  0  0  0  0
   34.4163   37.8308   28.6816 C   0  0  0  0  0  0
   41.8269   32.0089   19.9478 C   0  0  0  0  0  0
   43.5821   33.1031   18.7015 C   0  0  0  0  0  0
   42.6935   33.3427   23.0297 C   0  0  0  0  0  0
   40.4756   37.7965   28.3464 C   0  0  0  0  0  0
   33.0968   40.0336   30.5642 C   0  0  0  0  0  0
   42.2467   32.3985   18.5414 C   0  0  0  0  0  0
   33.2581   40.3694   29.0803 C   0  0  0  0  0  0
   41.3118   33.9368   22.7106 C   0  0  0  0  0  0
   33.9633   40.6196   31.4953 C   0  0  0  0  0  0
   32.0876   39.1681   31.0075 C   0  0  0  0  0  0
   39.8833   38.4980   29.5802 C   0  0  0  0  0  0
   33.8157   40.3500   32.8543 C   0  0  0  0  0  0
   31.9496   38.8927   32.3652 C   0  0  0  0  0  0
   32.8088   39.4896   33.2849 C   0  0  0  0  0  0
   40.5410   39.4535   27.0179 H   0  0  0  0  0  0
   38.2270   36.7184   26.9991 H   0  0  0  0  0  0
   35.9393   38.2236   26.0268 H   0  0  0  0  0  0
   36.1740   35.4801   27.4241 H   0  0  0  0  0  0
   34.7355   36.1266   26.6762 H   0  0  0  0  0  0
   41.9740   39.4466   25.4133 H   0  0  0  0  0  0
   43.0658   38.4698   23.3846 H   0  0  0  0  0  0
   40.0759   34.2423   24.3810 H   0  0  0  0  0  0
   35.3140   34.2131   24.0276 H   0  0  0  0  0  0
   43.9497   31.6479   22.5314 H   0  0  0  0  0  0
   42.2427   31.3160   22.4407 H   0  0  0  0  0  0
   34.4108   37.9470   29.7633 H   0  0  0  0  0  0
   34.1719   36.7894   28.4838 H   0  0  0  0  0  0
   41.5565   30.9537   20.0061 H   0  0  0  0  0  0
   40.9545   32.5811   20.2662 H   0  0  0  0  0  0
   43.4926   34.1738   18.5149 H   0  0  0  0  0  0
   44.3464   32.6992   18.0416 H   0  0  0  0  0  0
   43.4641   34.0980   22.8677 H   0  0  0  0  0  0
   42.7509   33.1085   24.0929 H   0  0  0  0  0  0
   40.2042   36.7432   28.3736 H   0  0  0  0  0  0
   41.5543   37.8057   28.4669 H   0  0  0  0  0  0
   41.4998   33.0333   18.0617 H   0  0  0  0  0  0
   42.3630   31.5093   17.9196 H   0  0  0  0  0  0
   32.4879   41.0861   28.7941 H   0  0  0  0  0  0
   34.2170   40.8584   28.9052 H   0  0  0  0  0  0
   40.6102   33.1166   22.5476 H   0  0  0  0  0  0
   41.3317   34.5079   21.7801 H   0  0  0  0  0  0
   34.7454   41.2894   31.1678 H   0  0  0  0  0  0
   31.4074   38.7102   30.3020 H   0  0  0  0  0  0
   40.3244   38.1017   30.4940 H   0  0  0  0  0  0
   40.0746   39.5710   29.5640 H   0  0  0  0  0  0
   38.8069   38.3492   29.6543 H   0  0  0  0  0  0
   34.4750   40.8095   33.5769 H   0  0  0  0  0  0
   31.1683   38.2302   32.7080 H   0  0  0  0  0  0
   32.6938   39.2899   34.3416 H   0  0  0  0  0  0
  1  2  1  0  0  0
  1  5  1  0  0  0
  1 13  1  0  0  0
  2  4  1  0  0  0
  2 16  2  0  0  0
  3  5  1  0  0  0
  3  6  1  0  0  0
  3 17  2  0  0  0
  4 21  1  0  0  0
  4  7  2  0  0  0
  5 29  1  0  0  0
  5 40  1  0  0  0
  6  8  1  0  0  0
  6 41  1  0  0  0
  7 15  1  0  0  0
  8 10  1  0  0  0
  8 12  1  0  0  0
  8 42  1  0  0  0
  9 24  1  0  0  0
  9 11  1  0  0  0
  9 26  1  0  0  0
 10 14  1  0  0  0
 10 43  1  0  0  0
 10 44  1  0  0  0
 11 18  2  0  0  0
 11 27  1  0  0  0
 12 19  2  0  0  0
 12 25  1  0  0  0
 13 15  2  0  0  0
 13 45  1  0  0  0
 14 20  2  0  0  0
 14 23  1  0  0  0
 15 46  1  0  0  0
 21 33  1  0  0  0
 21 47  1  0  0  0
 22 25  1  0  0  0
 22 32  1  0  0  0
 23 48  1  0  0  0
 24 28  1  0  0  0
 24 49  1  0  0  0
 24 50  1  0  0  0
 25 51  1  0  0  0
 25 52  1  0  0  0
 26 31  1  0  0  0
 26 53  1  0  0  0
 26 54  1  0  0  0
 27 31  1  0  0  0
 27 55  1  0  0  0
 27 56  1  0  0  0
 28 33  1  0  0  0
 28 57  1  0  0  0
 28 58  1  0  0  0
 29 36  1  0  0  0
 29 59  1  0  0  0
 29 60  1  0  0  0
 30 32  1  0  0  0
 30 34  1  0  0  0
 30 35  2  0  0  0
 31 61  1  0  0  0
 31 62  1  0  0  0
 32 63  1  0  0  0
 32 64  1  0  0  0
 33 65  1  0  0  0
 33 66  1  0  0  0
 34 37  2  0  0  0
 34 67  1  0  0  0
 35 38  1  0  0  0
 35 68  1  0  0  0
 36 69  1  0  0  0
 36 70  1  0  0  0
 36 71  1  0  0  0
 37 39  1  0  0  0
 37 72  1  0  0  0
 38 39  2  0  0  0
 38 73  1  0  0  0
 39 74  1  0  0  0
M  END
> <s_m_entry_id>
31343

> <s_m_entry_name>
dock_pv.2

> <s_m_Source_Path>
/home/csk/Desktop/cluster/DUD-E-result/casp3

> <s_m_Source_File>
dock_pv.maegz

> <i_m_Source_File_Index>
2

> <chembl_id>
CHEMBL182103

> <chembl_pref_name>
None

> <i_lp_mmshare_version>
53161

> <i_f3d_flags>
0

> <r_lp_tautomer_probability>
0.999999960000001

> <s_lp_Force_Field>
OPLS_2005

> <r_lp_Energy>
43.695444

> <b_lp_Chiralities_Consistent>
1

> <s_lp_Variant>
CHEMBL2334_lig250-1

> <s_i_glide_gridfile>
glide-grid_2cnk

> <i_i_glide_lignum>
426

> <i_i_glide_rotatable_bonds>
18

> <r_i_docking_score>
-7.0898096191961

> <r_i_glide_ligand_efficiency>
-0.181789990235798

> <r_i_glide_ligand_efficiency_sa>
-0.616488294360223

> <r_i_glide_ligand_efficiency_ln>
-1.52025643856987

> <r_i_glide_gscore>
-7.0898096191961

> <r_i_glide_lipo>
-2.64464326841862

> <r_i_glide_hbond>
-0.304

> <r_i_glide_metal>
0

> <r_i_glide_rewards>
-0.884979355080506

> <r_i_glide_evdw>
-50.6809425354004

> <r_i_glide_ecoul>
-10.4828767776489

> <r_i_glide_erotb>
0.858191905001421

> <r_i_glide_esite>
-0.00790025728103716

> <r_i_glide_emodel>
-83.7662028161908

> <r_i_glide_energy>
-61.1638193130493

> <r_i_glide_einternal>
10.3297758102417

> <i_i_glide_confnum>
266

> <i_i_glide_posenum>
57

> <r_i_glide_eff_state_penalty>
0

> <s_m_subgroup_title>
dock_pv

> <s_m_subgroupid>
dock_pv

> <b_m_subgroup_collapsed>
0

$$$$
373550
                    3D
 Schrodinger Suite 2021-1.
 62 61  0  0  1  0            999 V2000
   41.4068   35.2082   26.7679 C   0  0  0  0  0  0
   41.6405   34.4947   25.4221 C   0  0  0  0  0  0
   43.1500   34.2791   25.2395 C   0  0  0  0  0  0
   40.9618   35.2121   24.2143 C   0  0  1  0  0  0
   41.2797   34.6773   22.8050 C   0  0  0  0  0  0
   41.3796   35.4683   21.8699 O   0  0  0  0  0  0
   41.4610   33.3507   22.6739 N   0  0  0  0  0  0
   41.8872   32.5825   21.4944 C   0  0  1  0  0  0
   41.1109   32.8960   20.1862 C   0  0  0  0  0  0
   39.6719   32.3817   20.2389 C   0  0  0  0  0  0
   39.3891   31.2060   20.4544 O   0  0  0  0  0  0
   38.7500   33.3740   20.0701 O   0  0  0  0  0  0
   43.4137   32.5916   21.3172 C   0  0  0  0  0  0
   44.1615   33.5100   21.6558 O   0  0  0  0  0  0
   39.5131   35.2755   24.3923 N   0  0  0  0  0  0
   38.8314   36.2920   24.9421 C   0  0  0  0  0  0
   39.3593   37.3492   25.2889 O   0  0  0  0  0  0
   37.3329   36.0583   25.1800 C   0  0  2  0  0  0
   36.4929   35.6169   23.9583 C   0  0  0  0  0  0
   36.5702   36.4705   22.6891 C   0  0  0  0  0  0
   37.1695   37.5382   22.5991 O   0  0  0  0  0  0
   35.8740   35.9100   21.6583 O   0  0  0  0  0  0
   36.7280   37.1670   25.9150 N   0  0  0  0  0  0
   35.8610   37.0518   26.9338 C   0  0  0  0  0  0
   35.3662   35.9759   27.2700 O   0  0  0  0  0  0
   35.5825   38.3430   27.7258 C   0  0  2  0  0  0
   36.8652   38.6427   28.5410 C   0  0  0  0  0  0
   36.8332   40.0107   29.2221 C   0  0  0  0  0  0
   36.8446   41.0761   28.6113 O   0  0  0  0  0  0
   36.7944   39.9100   30.5806 O   0  0  0  0  0  0
   34.4655   38.1806   28.6666 N   0  0  0  0  0  0
   33.1778   38.4298   28.3936 C   0  0  0  0  0  0
   32.7716   38.7100   27.2700 O   0  0  0  0  0  0
   32.1907   38.3716   29.5552 C   0  0  0  0  0  0
   41.3530   36.2318   24.2064 H   0  0  0  0  0  0
   41.6524   31.5510   21.7634 H   0  0  0  0  0  0
   37.3263   35.2026   25.8584 H   0  0  0  0  0  0
   35.3760   39.1551   27.0248 H   0  0  0  0  0  0
   41.7458   36.2442   26.7320 H   0  0  0  0  0  0
   40.3555   35.2087   27.0516 H   0  0  0  0  0  0
   41.9500   34.7154   27.5743 H   0  0  0  0  0  0
   41.1886   33.5100   25.5151 H   0  0  0  0  0  0
   43.6870   35.2274   25.1934 H   0  0  0  0  0  0
   43.5499   33.7039   26.0701 H   0  0  0  0  0  0
   43.3908   33.7086   24.3463 H   0  0  0  0  0  0
   41.3823   32.8018   23.5226 H   0  0  0  0  0  0
   41.5890   32.3851   19.3494 H   0  0  0  0  0  0
   41.1335   33.9543   19.9300 H   0  0  0  0  0  0
   37.8471   33.1100   20.2973 H   0  0  0  0  0  0
   43.7856   31.6700   20.8698 H   0  0  0  0  0  0
   38.9904   34.4674   24.0906 H   0  0  0  0  0  0
   36.8496   34.6416   23.6700 H   0  0  0  0  0  0
   35.4503   35.4860   24.2446 H   0  0  0  0  0  0
   35.5501   35.0377   21.8491 H   0  0  0  0  0  0
   37.1076   38.0808   25.7099 H   0  0  0  0  0  0
   37.0522   37.8536   29.2700 H   0  0  0  0  0  0
   37.7416   38.6550   27.8910 H   0  0  0  0  0  0
   36.7500   39.0035   30.8701 H   0  0  0  0  0  0
   34.6793   37.8100   29.5840 H   0  0  0  0  0  0
   32.3500   37.5100   30.1958 H   0  0  0  0  0  0
   32.2782   39.2704   30.1653 H   0  0  0  0  0  0
   31.1689   38.3100   29.1823 H   0  0  0  0  0  0
  1  2  1  0  0  0
  1 39  1  0  0  0
  1 40  1  0  0  0
  1 41  1  0  0  0
  2  3  1  0  0  0
  2  4  1  0  0  0
  2 42  1  0  0  0
  3 43  1  0  0  0
  3 44  1  0  0  0
  3 45  1  0  0  0
  4 35  1  0  0  0
  4  5  1  0  0  0
  4 15  1  0  0  0
  5  6  2  0  0  0
  5  7  1  0  0  0
  7  8  1  0  0  0
  7 46  1  0  0  0
  8 36  1  0  0  0
  8  9  1  0  0  0
  8 13  1  0  0  0
  9 10  1  0  0  0
  9 47  1  0  0  0
  9 48  1  0  0  0
 10 11  2  0  0  0
 10 12  1  0  0  0
 12 49  1  0  0  0
 13 14  2  0  0  0
 13 50  1  0  0  0
 15 16  1  0  0  0
 15 51  1  0  0  0
 16 17  2  0  0  0
 16 18  1  0  0  0
 18 37  1  0  0  0
 18 19  1  0  0  0
 18 23  1  0  0  0
 19 20  1  0  0  0
 19 52  1  0  0  0
 19 53  1  0  0  0
 20 21  2  0  0  0
 20 22  1  0  0  0
 22 54  1  0  0  0
 23 24  1  0  0  0
 23 55  1  0  0  0
 24 25  2  0  0  0
 24 26  1  0  0  0
 26 38  1  0  0  0
 26 27  1  0  0  0
 26 31  1  0  0  0
 27 28  1  0  0  0
 27 56  1  0  0  0
 27 57  1  0  0  0
 28 29  2  0  0  0
 28 30  1  0  0  0
 30 58  1  0  0  0
 31 32  1  0  0  0
 31 59  1  0  0  0
 32 33  2  0  0  0
 32 34  1  0  0  0
 34 60  1  0  0  0
 34 61  1  0  0  0
 34 62  1  0  0  0
M  END
> <s_m_entry_id>
32122

> <s_m_entry_name>
ligand_docking-pose.1

> <s_m_Source_Path>
/home/csk/Desktop/cluster/DUD-E-result/casp3

> <s_m_Source_File>
ligand_docking-pose.sdf

> <i_m_Source_File_Index>
1

> <i_lp_mmshare_version>
53161

> <r_lp_tautomer_probability>
0.99990000499975

> <s_lp_Force_Field>
OPLS_2005

> <r_lp_Energy>
1.731543

> <b_lp_Chiralities_Consistent>
1

> <s_lp_Variant>
373550-1

> <s_i_glide_gridfile>
glide-grid_2cnk

> <i_i_glide_lignum>
479

> <i_i_glide_rotatable_bonds>
22

> <r_i_docking_score>
-7.41583879353072

> <r_i_glide_ligand_efficiency>
-0.21811290569208

> <r_i_glide_ligand_efficiency_sa>
-0.706601142460409

> <r_i_glide_ligand_efficiency_ln>
-1.63836679672342

> <r_i_glide_gscore>
-7.41583879353072

> <r_i_glide_lipo>
-1.46586900443551

> <r_i_glide_hbond>
-0.80197880297757

> <r_i_glide_metal>
0

> <r_i_glide_rewards>
-0.987882337283852

> <r_i_glide_evdw>
-41.2480964660645

> <r_i_glide_ecoul>
-22.4593734741211

> <r_i_glide_erotb>
1.36383925808963

> <r_i_glide_esite>
-0.09263706250204

> <r_i_glide_emodel>
-82.6789964495852

> <r_i_glide_energy>
-63.7074699401855

> <r_i_glide_einternal>
23.1497611999512

> <i_i_glide_confnum>
1099

> <i_i_glide_posenum>
165

> <r_i_glide_eff_state_penalty>
0

> <i_f3d_flags>
0

> <s_m_subgroup_title>
dock_pv

> <s_m_subgroupid>
dock_pv1

> <b_m_subgroup_collapsed>
0

$$$$
151267
                    3D
 Schrodinger Suite 2021-1.
 65 65  0  0  1  0            999 V2000
   41.3336   35.7716   26.7512 C   0  0  0  0  0  0
   41.5994   34.5919   25.7938 C   0  0  0  0  0  0
   42.9979   34.0164   26.0699 C   0  0  0  0  0  0
   41.3249   34.9757   24.3037 C   0  0  1  0  0  0
   41.9614   34.0629   23.2273 C   0  0  0  0  0  0
   43.1854   33.9584   23.1548 O   0  0  0  0  0  0
   41.1501   33.4242   22.3686 N   0  0  0  0  0  0
   41.5922   32.4396   21.3872 C   0  0  1  0  0  0
   40.3966   31.7603   20.7405 C   0  0  0  0  0  0
   40.6550   31.9100   19.2577 C   0  0  0  0  0  0
   39.9592   31.3695   18.4019 O   0  0  0  0  0  0
   41.7145   32.6947   19.0261 O   0  0  0  0  0  0
   42.3433   33.0910   20.2050 C   0  0  2  0  0  0
   43.7020   32.7104   20.2112 O   0  0  0  0  0  0
   39.8787   35.1100   24.1082 N   0  0  0  0  0  0
   39.1692   36.2450   24.0853 C   0  0  0  0  0  0
   39.6739   37.3640   24.1688 O   0  0  0  0  0  0
   37.6535   36.0752   23.9185 C   0  0  2  0  0  0
   37.2884   36.4774   22.4761 C   0  0  0  0  0  0
   35.8376   36.1145   22.1301 C   0  0  0  0  0  0
   35.5288   36.2717   20.6464 C   0  0  0  0  0  0
   35.1745   37.3344   20.1415 O   0  0  0  0  0  0
   35.6858   35.1100   19.9468 O   0  0  0  0  0  0
   36.9631   36.9504   24.8655 N   0  0  0  0  0  0
   36.5348   36.5699   26.0789 C   0  0  0  0  0  0
   36.6164   35.4053   26.4708 O   0  0  0  0  0  0
   35.9467   37.6694   26.9882 C   0  0  1  0  0  0
   34.6177   37.1756   27.6129 C   0  0  0  0  0  0
   33.6892   38.3110   28.0529 C   0  0  0  0  0  0
   33.1740   39.1081   27.2705 O   0  0  0  0  0  0
   33.4443   38.3102   29.3943 O   0  0  0  0  0  0
   36.8881   37.9461   28.0748 N   0  0  0  0  0  0
   37.9988   38.6891   27.9650 C   0  0  0  0  0  0
   38.3201   39.2721   26.9314 O   0  0  0  0  0  0
   38.8849   38.7741   29.2022 C   0  0  0  0  0  0
   42.2217   31.6869   21.8676 H   0  0  0  0  0  0
   41.9637   36.6275   26.5079 H   0  0  0  0  0  0
   40.2964   36.1024   26.7124 H   0  0  0  0  0  0
   41.5403   35.5021   27.7869 H   0  0  0  0  0  0
   40.9009   33.8026   26.0704 H   0  0  0  0  0  0
   43.7816   34.7103   25.7632 H   0  0  0  0  0  0
   43.1251   33.8081   27.1285 H   0  0  0  0  0  0
   43.1564   33.0657   25.5608 H   0  0  0  0  0  0
   41.7949   35.9452   24.1278 H   0  0  0  0  0  0
   40.1594   33.5936   22.4384 H   0  0  0  0  0  0
   39.4542   32.2511   20.9853 H   0  0  0  0  0  0
   40.3199   30.7100   21.0158 H   0  0  0  0  0  0
   42.3096   34.1805   20.2519 H   0  0  0  0  0  0
   43.7413   31.7674   20.2340 H   0  0  0  0  0  0
   39.3564   34.2487   24.0692 H   0  0  0  0  0  0
   37.3782   35.0313   24.0811 H   0  0  0  0  0  0
   37.4538   37.5453   22.3197 H   0  0  0  0  0  0
   37.9511   35.9614   21.7778 H   0  0  0  0  0  0
   35.6141   35.1038   22.4342 H   0  0  0  0  0  0
   35.1501   36.7121   22.7117 H   0  0  0  0  0  0
   35.9502   34.3515   20.4691 H   0  0  0  0  0  0
   36.9186   37.9317   24.6328 H   0  0  0  0  0  0
   35.7733   38.5719   26.3972 H   0  0  0  0  0  0
   34.0477   36.6274   26.8696 H   0  0  0  0  0  0
   34.7960   36.4742   28.4304 H   0  0  0  0  0  0
   33.8472   37.5897   29.8707 H   0  0  0  0  0  0
   36.7068   37.5078   28.9671 H   0  0  0  0  0  0
   38.2869   38.7985   30.1132 H   0  0  0  0  0  0
   39.5483   37.9104   29.2477 H   0  0  0  0  0  0
   39.4973   39.6756   29.1732 H   0  0  0  0  0  0
  1  2  1  0  0  0
  1 37  1  0  0  0
  1 38  1  0  0  0
  1 39  1  0  0  0
  2  3  1  0  0  0
  2  4  1  0  0  0
  2 40  1  0  0  0
  3 41  1  0  0  0
  3 42  1  0  0  0
  3 43  1  0  0  0
  4  5  1  0  0  0
  4 15  1  0  0  0
  4 44  1  0  0  0
  5  6  2  0  0  0
  5  7  1  0  0  0
  7  8  1  0  0  0
  7 45  1  0  0  0
  8 36  1  0  0  0
  8 13  1  0  0  0
  8  9  1  0  0  0
  9 10  1  0  0  0
  9 46  1  0  0  0
  9 47  1  0  0  0
 10 11  2  0  0  0
 10 12  1  0  0  0
 12 13  1  0  0  0
 13 14  1  0  0  0
 13 48  1  0  0  0
 14 49  1  0  0  0
 15 16  1  0  0  0
 15 50  1  0  0  0
 16 17  2  0  0  0
 16 18  1  0  0  0
 18 19  1  0  0  0
 18 24  1  0  0  0
 18 51  1  0  0  0
 19 20  1  0  0  0
 19 52  1  0  0  0
 19 53  1  0  0  0
 20 21  1  0  0  0
 20 54  1  0  0  0
 20 55  1  0  0  0
 21 22  2  0  0  0
 21 23  1  0  0  0
 23 56  1  0  0  0
 24 25  1  0  0  0
 24 57  1  0  0  0
 25 26  2  0  0  0
 25 27  1  0  0  0
 27 28  1  0  0  0
 27 32  1  0  0  0
 27 58  1  0  0  0
 28 29  1  0  0  0
 28 59  1  0  0  0
 28 60  1  0  0  0
 29 30  2  0  0  0
 29 31  1  0  0  0
 31 61  1  0  0  0
 32 33  1  0  0  0
 32 62  1  0  0  0
 33 34  2  0  0  0
 33 35  1  0  0  0
 35 63  1  0  0  0
 35 64  1  0  0  0
 35 65  1  0  0  0
M  END
> <s_m_entry_id>
32123

> <s_m_entry_name>
ligand_docking-pose.2

> <s_m_Source_Path>
/home/csk/Desktop/cluster/DUD-E-result/casp3

> <s_m_Source_File>
ligand_docking-pose.sdf

> <i_m_Source_File_Index>
2

> <i_lp_mmshare_version>
53161

> <r_lp_tautomer_probability>
1

> <s_lp_Force_Field>
OPLS_2005

> <r_lp_Energy>
-3.492602

> <b_lp_Chiralities_Consistent>
1

> <s_lp_Variant>
151267-12

> <s_i_glide_gridfile>
glide-grid_2cnk

> <i_i_glide_lignum>
357

> <i_i_glide_rotatable_bonds>
20

> <r_i_docking_score>
-6.91384507309334

> <r_i_glide_ligand_efficiency>
-0.19753843065981

> <r_i_glide_ligand_efficiency_sa>
-0.646161304733053

> <r_i_glide_ligand_efficiency_ln>
-1.51774243806801

> <r_i_glide_gscore>
-6.91384507309334

> <r_i_glide_lipo>
-1.58672857864773

> <r_i_glide_hbond>
-0.620620001313832

> <r_i_glide_metal>
0

> <r_i_glide_rewards>
-0.761121930786212

> <r_i_glide_evdw>
-42.9382934570312

> <r_i_glide_ecoul>
-19.6764907836914

> <r_i_glide_erotb>
1.21397005919485

> <r_i_glide_esite>
-0.0609563311351448

> <r_i_glide_emodel>
-82.6785774865932

> <r_i_glide_energy>
-62.6147842407227

> <r_i_glide_einternal>
17.0791759490967

> <i_i_glide_confnum>
144

> <i_i_glide_posenum>
49

> <r_i_glide_eff_state_penalty>
0

> <i_f3d_flags>
0

> <s_m_subgroup_title>
dock_pv

> <s_m_subgroupid>
dock_pv1

> <b_m_subgroup_collapsed>
0

$$$$
300595
                    3D
 Schrodinger Suite 2021-1.
 72 75  0  0  1  0            999 V2000
   40.9634   35.3926   27.0532 C   0  0  0  0  0  0
   41.4571   36.0243   25.7525 C   0  0  0  0  0  0
   40.3771   36.1790   24.6439 C   0  0  2  0  0  0
   40.9363   36.6509   23.2833 C   0  0  0  0  0  0
   40.2171   37.2062   22.4525 O   0  0  0  0  0  0
   42.2407   36.4400   23.0841 N   0  0  0  0  0  0
   43.0978   37.0224   22.0606 C   0  0  1  0  0  0
   43.6253   38.4149   22.5296 C   0  0  0  0  0  0
   44.3500   38.4368   23.8899 C   0  0  0  0  0  0
   44.2862   37.5365   24.7252 O   0  0  0  0  0  0
   45.1134   39.5562   24.0700 O   0  0  0  0  0  0
   44.1767   36.0063   21.6301 C   0  0  0  0  0  0
   45.3860   36.2156   21.7182 O   0  0  0  0  0  0
   43.6953   34.6744   21.0492 C   0  0  0  0  0  0
   43.3875   33.4609   22.3704 S   0  0  0  0  0  0
   43.1492   31.9330   21.4218 C   0  0  0  0  0  0
   41.9669   32.0599   20.4790 C   0  0  0  0  0  0
   40.6527   31.9103   20.9683 C   0  0  0  0  0  0
   39.5559   32.0011   20.0887 C   0  0  0  0  0  0
   39.7678   32.2458   18.7191 C   0  0  0  0  0  0
   41.0780   32.4023   18.2281 C   0  0  0  0  0  0
   42.1750   32.3099   19.1058 C   0  0  0  0  0  0
   39.2589   37.0275   25.1162 N   0  0  0  0  0  0
   39.4492   38.4241   25.1844 C   0  0  0  0  0  0
   38.4468   39.2497   25.5376 C   0  0  0  0  0  0
   37.1833   38.7506   25.8489 N   0  0  0  0  0  0
   36.9634   37.4713   25.8710 C   0  0  0  0  0  0
   38.0832   36.4769   25.5341 C   0  0  0  0  0  0
   37.9046   35.2600   25.6512 O   0  0  0  0  0  0
   35.7541   36.8791   26.1813 N   0  0  0  0  0  0
   35.3496   36.7499   27.5697 C   0  0  0  0  0  0
   34.4463   37.8369   28.0499 C   0  0  0  0  0  0
   33.3431   38.3100   27.4632 N   0  0  0  0  0  0
   32.7500   39.1259   28.3982 N   0  0  0  0  0  0
   33.5657   39.1294   29.4571 C   0  0  0  0  0  0
   34.6784   38.3767   29.2699 O   0  0  0  0  0  0
   33.3920   39.7840   30.7460 C   0  0  0  0  0  0
   32.1171   39.8545   31.3486 C   0  0  0  0  0  0
   31.9607   40.4748   32.6027 C   0  0  0  0  0  0
   33.0765   41.0179   33.2660 C   0  0  0  0  0  0
   34.3500   40.9394   32.6747 C   0  0  0  0  0  0
   34.5105   40.3172   31.4213 C   0  0  0  0  0  0
   42.4833   37.2043   21.1774 H   0  0  0  0  0  0
   41.8149   35.1157   27.6714 H   0  0  0  0  0  0
   40.3515   36.0900   27.6244 H   0  0  0  0  0  0
   40.3835   34.4880   26.8655 H   0  0  0  0  0  0
   42.2639   35.3828   25.3973 H   0  0  0  0  0  0
   41.9112   36.9900   25.9767 H   0  0  0  0  0  0
   40.0105   35.1753   24.4217 H   0  0  0  0  0  0
   42.7344   35.9633   23.8271 H   0  0  0  0  0  0
   44.2958   38.8248   21.7736 H   0  0  0  0  0  0
   42.7885   39.1113   22.5969 H   0  0  0  0  0  0
   45.6100   39.5101   24.8974 H   0  0  0  0  0  0
   44.4525   34.2849   20.3694 H   0  0  0  0  0  0
   42.7828   34.8295   20.4720 H   0  0  0  0  0  0
   42.9785   31.1097   22.1149 H   0  0  0  0  0  0
   44.0614   31.7041   20.8700 H   0  0  0  0  0  0
   40.4808   31.7198   22.0182 H   0  0  0  0  0  0
   38.5497   31.8878   20.4672 H   0  0  0  0  0  0
   38.9233   32.3181   18.0492 H   0  0  0  0  0  0
   41.2411   32.5893   17.1768 H   0  0  0  0  0  0
   43.1770   32.4225   18.7185 H   0  0  0  0  0  0
   40.4423   38.7730   24.9384 H   0  0  0  0  0  0
   38.5735   40.3214   25.5942 H   0  0  0  0  0  0
   34.9408   37.1101   25.6077 H   0  0  0  0  0  0
   34.8356   35.7978   27.6964 H   0  0  0  0  0  0
   36.2236   36.7102   28.2207 H   0  0  0  0  0  0
   31.2527   39.4241   30.8656 H   0  0  0  0  0  0
   30.9851   40.5312   33.0597 H   0  0  0  0  0  0
   32.9582   41.4919   34.2295 H   0  0  0  0  0  0
   35.2035   41.3540   33.1881 H   0  0  0  0  0  0
   35.4945   40.2534   30.9785 H   0  0  0  0  0  0
  1  2  1  0  0  0
  1 44  1  0  0  0
  1 45  1  0  0  0
  1 46  1  0  0  0
  2  3  1  0  0  0
  2 47  1  0  0  0
  2 48  1  0  0  0
  3  4  1  0  0  0
  3 23  1  0  0  0
  3 49  1  0  0  0
  4  5  2  0  0  0
  4  6  1  0  0  0
  6  7  1  0  0  0
  6 50  1  0  0  0
  7 43  1  0  0  0
  7  8  1  0  0  0
  7 12  1  0  0  0
  8  9  1  0  0  0
  8 51  1  0  0  0
  8 52  1  0  0  0
  9 10  2  0  0  0
  9 11  1  0  0  0
 11 53  1  0  0  0
 12 13  2  0  0  0
 12 14  1  0  0  0
 14 15  1  0  0  0
 14 54  1  0  0  0
 14 55  1  0  0  0
 15 16  1  0  0  0
 16 17  1  0  0  0
 16 56  1  0  0  0
 16 57  1  0  0  0
 17 22  1  0  0  0
 17 18  2  0  0  0
 18 19  1  0  0  0
 18 58  1  0  0  0
 19 20  2  0  0  0
 19 59  1  0  0  0
 20 21  1  0  0  0
 20 60  1  0  0  0
 21 22  2  0  0  0
 21 61  1  0  0  0
 22 62  1  0  0  0
 23 28  1  0  0  0
 23 24  1  0  0  0
 24 25  2  0  0  0
 24 63  1  0  0  0
 25 26  1  0  0  0
 25 64  1  0  0  0
 26 27  2  0  0  0
 27 28  1  0  0  0
 27 30  1  0  0  0
 28 29  2  0  0  0
 30 31  1  0  0  0
 30 65  1  0  0  0
 31 32  1  0  0  0
 31 66  1  0  0  0
 31 67  1  0  0  0
 32 36  1  0  0  0
 32 33  2  0  0  0
 33 34  1  0  0  0
 34 35  2  0  0  0
 35 36  1  0  0  0
 35 37  1  0  0  0
 37 42  1  0  0  0
 37 38  2  0  0  0
 38 39  1  0  0  0
 38 68  1  0  0  0
 39 40  2  0  0  0
 39 69  1  0  0  0
 40 41  1  0  0  0
 40 70  1  0  0  0
 41 42  2  0  0  0
 41 71  1  0  0  0
 42 72  1  0  0  0
M  END
> <s_m_entry_id>
32124

> <s_m_entry_name>
ligand_docking-pose.3

> <s_m_Source_Path>
/home/csk/Desktop/cluster/DUD-E-result/casp3

> <s_m_Source_File>
ligand_docking-pose.sdf

> <i_m_Source_File_Index>
3

> <i_lp_mmshare_version>
53161

> <r_lp_tautomer_probability>
0.999999960000001

> <s_lp_Force_Field>
OPLS_2005

> <r_lp_Energy>
24.082951

> <b_lp_Chiralities_Consistent>
1

> <s_lp_Variant>
300595-1

> <s_i_glide_gridfile>
glide-grid_2cnk

> <i_i_glide_lignum>
551

> <i_i_glide_rotatable_bonds>
17

> <r_i_docking_score>
-6.84732701242987

> <r_i_glide_ligand_efficiency>
-0.163031595534045

> <r_i_glide_ligand_efficiency_sa>
-0.566702169328641

> <r_i_glide_ligand_efficiency_ln>
-1.44529432487336

> <r_i_glide_gscore>
-6.84732701242987

> <r_i_glide_lipo>
-2.36779144605435

> <r_i_glide_hbond>
-0.364763400227127

> <r_i_glide_metal>
0

> <r_i_glide_rewards>
-0.089813431358142

> <r_i_glide_evdw>
-47.9813461303711

> <r_i_glide_ecoul>
-15.4913892745972

> <r_i_glide_erotb>
0.731934783605666

> <r_i_glide_esite>
-0.0341178206877909

> <r_i_glide_emodel>
-81.8711448066597

> <r_i_glide_energy>
-63.4727354049683

> <r_i_glide_einternal>
18.1554470062256

> <i_i_glide_confnum>
332

> <i_i_glide_posenum>
4

> <r_i_glide_eff_state_penalty>
0

> <i_f3d_flags>
0

> <s_m_subgroup_title>
dock_pv

> <s_m_subgroupid>
dock_pv1

> <b_m_subgroup_collapsed>
0

$$$$
