88310
                    3D
 Schrodinger Suite 2021-1.
 76 77  0  0  1  0            999 V2000
   40.1940   29.1365   -6.3313 C   0  0  0  0  0  0
   39.7176   27.7202   -5.9588 C   0  0  0  0  0  0
   38.4479   27.6815   -5.0779 C   0  0  0  0  0  0
   37.3078   28.6184   -5.5307 C   0  0  0  0  0  0
   36.8812   28.4498   -7.0094 C   0  0  0  0  0  0
   36.2662   29.7236   -7.6233 C   0  0  0  0  0  0
   34.8824   30.0475   -7.0523 C   0  0  0  0  0  0
   34.3191   31.4105   -7.4966 C   0  0  0  0  0  0
   32.9997   31.7968   -6.7748 C   0  0  0  0  0  0
   33.1096   32.1371   -5.2780 C   0  0  0  0  0  0
   32.1122   32.4775   -4.6447 O   0  0  0  0  0  0
   34.3179   32.0395   -4.7198 N   0  0  0  0  0  0
   34.6750   32.3582   -3.3412 C   0  0  1  0  0  0
   35.5862   31.2149   -2.8080 C   0  0  0  0  0  0
   35.3254   30.8815   -1.4127 N   0  0  2  0  0  0
   35.7354   31.9025   -0.4488 C   0  0  2  0  0  0
   37.2263   31.7331   -0.1839 C   0  0  0  0  0  0
   37.8244   31.6728    1.0249 C   0  0  0  0  0  0
   37.0165   31.8299    2.3051 C   0  0  1  0  0  0
   35.6038   32.4428    2.0835 C   0  0  2  0  0  0
   34.8802   31.8899    0.8353 C   0  0  1  0  0  0
   33.6118   32.5037    0.6264 O   0  0  0  0  0  0
   35.6486   33.8533    2.0239 O   0  0  0  0  0  0
   36.9940   30.5846    2.9550 O   0  0  0  0  0  0
   39.3136   31.3741    1.2362 C   0  0  0  0  0  0
   39.9415   30.8771    0.0739 O   0  0  0  0  0  0
   35.3072   33.7887   -3.2071 C   0  0  1  0  0  0
   35.7946   34.4296   -4.5168 C   0  0  0  0  0  0
   35.0956   35.4805   -5.1249 C   0  0  0  0  0  0
   35.5566   36.0252   -6.3202 C   0  0  0  0  0  0
   36.7129   35.5200   -6.9085 C   0  0  0  0  0  0
   37.4158   34.4742   -6.3125 C   0  0  0  0  0  0
   36.9556   33.9299   -5.1177 C   0  0  0  0  0  0
   34.4674   34.6302   -2.4341 O   0  0  0  0  0  0
   33.7611   32.3214   -2.7379 H   0  0  0  0  0  0
   36.1938   33.6788   -2.5977 H   0  0  0  0  0  0
   41.0152   29.0936   -7.0450 H   0  0  0  0  0  0
   40.5414   29.6767   -5.4508 H   0  0  0  0  0  0
   39.4175   29.7320   -6.8088 H   0  0  0  0  0  0
   39.5454   27.1472   -6.8705 H   0  0  0  0  0  0
   40.5204   27.1904   -5.4454 H   0  0  0  0  0  0
   38.0814   26.6544   -5.0328 H   0  0  0  0  0  0
   38.7198   27.9379   -4.0516 H   0  0  0  0  0  0
   36.4443   28.4707   -4.8819 H   0  0  0  0  0  0
   37.6193   29.6472   -5.3451 H   0  0  0  0  0  0
   37.7302   28.1786   -7.6342 H   0  0  0  0  0  0
   36.1940   27.6075   -7.0799 H   0  0  0  0  0  0
   36.9420   30.5649   -7.4607 H   0  0  0  0  0  0
   36.1963   29.6114   -8.7065 H   0  0  0  0  0  0
   34.1888   29.2772   -7.3621 H   0  0  0  0  0  0
   34.9247   29.9675   -5.9685 H   0  0  0  0  0  0
   35.0646   32.1968   -7.3551 H   0  0  0  0  0  0
   34.1404   31.3777   -8.5724 H   0  0  0  0  0  0
   32.5943   32.6804   -7.2666 H   0  0  0  0  0  0
   32.2737   30.9918   -6.8906 H   0  0  0  0  0  0
   35.0759   31.7362   -5.3120 H   0  0  0  0  0  0
   35.3722   30.2962   -3.3569 H   0  0  0  0  0  0
   36.6463   31.4116   -2.9826 H   0  0  0  0  0  0
   35.7262   29.9770   -1.1614 H   0  0  0  0  0  0
   35.6006   32.9036   -0.8359 H   0  0  0  0  0  0
   37.8542   31.6098   -1.0499 H   0  0  0  0  0  0
   37.5662   32.4768    2.9863 H   0  0  0  0  0  0
   34.9869   32.2280    2.9555 H   0  0  0  0  0  0
   34.6344   30.8642    1.0254 H   0  0  0  0  0  0
   32.9273   31.8548    0.8187 H   0  0  0  0  0  0
   36.3819   34.2015    2.5534 H   0  0  0  0  0  0
   36.0869   30.2224    2.9550 H   0  0  0  0  0  0
   39.8240   32.2677    1.5972 H   0  0  0  0  0  0
   39.4194   30.6101    2.0053 H   0  0  0  0  0  0
   39.4776   30.0686   -0.2030 H   0  0  0  0  0  0
   34.1946   35.8721   -4.6784 H   0  0  0  0  0  0
   35.0188   36.8370   -6.7891 H   0  0  0  0  0  0
   37.0690   35.9440   -7.8357 H   0  0  0  0  0  0
   38.3118   34.0867   -6.7745 H   0  0  0  0  0  0
   37.5016   33.1168   -4.6568 H   0  0  0  0  0  0
   34.8664   35.5039   -2.3660 H   0  0  0  0  0  0
  1  2  1  0  0  0
  1 37  1  0  0  0
  1 38  1  0  0  0
  1 39  1  0  0  0
  2  3  1  0  0  0
  2 40  1  0  0  0
  2 41  1  0  0  0
  3  4  1  0  0  0
  3 42  1  0  0  0
  3 43  1  0  0  0
  4  5  1  0  0  0
  4 44  1  0  0  0
  4 45  1  0  0  0
  5  6  1  0  0  0
  5 46  1  0  0  0
  5 47  1  0  0  0
  6  7  1  0  0  0
  6 48  1  0  0  0
  6 49  1  0  0  0
  7  8  1  0  0  0
  7 50  1  0  0  0
  7 51  1  0  0  0
  8  9  1  0  0  0
  8 52  1  0  0  0
  8 53  1  0  0  0
  9 10  1  0  0  0
  9 54  1  0  0  0
  9 55  1  0  0  0
 10 11  2  0  0  0
 10 12  1  0  0  0
 12 13  1  0  0  0
 12 56  1  0  0  0
 13 35  1  0  0  0
 13 14  1  0  0  0
 13 27  1  0  0  0
 14 15  1  0  0  0
 14 57  1  0  0  0
 14 58  1  0  0  0
 15 16  1  0  0  0
 15 59  1  0  0  0
 16 21  1  0  0  0
 16 17  1  0  0  0
 16 60  1  0  0  0
 17 18  2  0  0  0
 17 61  1  0  0  0
 18 19  1  0  0  0
 18 25  1  0  0  0
 19 20  1  0  0  0
 19 24  1  0  0  0
 19 62  1  0  0  0
 20 21  1  0  0  0
 20 23  1  0  0  0
 20 63  1  0  0  0
 21 22  1  0  0  0
 21 64  1  0  0  0
 22 65  1  0  0  0
 23 66  1  0  0  0
 24 67  1  0  0  0
 25 26  1  0  0  0
 25 68  1  0  0  0
 25 69  1  0  0  0
 26 70  1  0  0  0
 27 36  1  0  0  0
 27 28  1  0  0  0
 27 34  1  0  0  0
 28 33  1  0  0  0
 28 29  2  0  0  0
 29 30  1  0  0  0
 29 71  1  0  0  0
 30 31  2  0  0  0
 30 72  1  0  0  0
 31 32  1  0  0  0
 31 73  1  0  0  0
 32 33  2  0  0  0
 32 74  1  0  0  0
 33 75  1  0  0  0
 34 76  1  0  0  0
M  END
> <s_m_entry_id>
3496

> <s_m_entry_name>
ligand_docking-pose.1

> <s_m_Source_Path>
/home/csk/Desktop/cluster/DUD-E-result/glcm

> <s_m_Source_File>
ligand_docking-pose.sdf

> <i_m_Source_File_Index>
1

> <i_lp_mmshare_version>
53161

> <r_lp_tautomer_probability>
1

> <s_lp_Force_Field>
OPLS_2005

> <r_lp_Energy>
32.426983

> <b_lp_Chiralities_Consistent>
1

> <s_lp_Variant>
88310-5

> <s_i_glide_gridfile>
glide-grid_2v3f

> <i_i_glide_lignum>
236

> <i_i_glide_rotatable_bonds>
21

> <r_i_docking_score>
-7.27403660921947

> <r_i_glide_ligand_efficiency>
-0.213942253212337

> <r_i_glide_ligand_efficiency_sa>
-0.693089847483889

> <r_i_glide_ligand_efficiency_ln>
-1.60703871679252

> <r_i_glide_gscore>
-7.27403660921947

> <r_i_glide_lipo>
-1.87713612013174

> <r_i_glide_hbond>
-1.17573021763422

> <r_i_glide_metal>
0

> <r_i_glide_rewards>
-0.145735408976111

> <r_i_glide_evdw>
-39.0150299072266

> <r_i_glide_ecoul>
-21.9742221832275

> <r_i_glide_erotb>
1.23853243040519

> <r_i_glide_esite>
-0.0670824700371285

> <r_i_glide_emodel>
-84.6718218362686

> <r_i_glide_energy>
-60.9892520904541

> <r_i_glide_einternal>
16.3312644958496

> <i_i_glide_confnum>
100

> <i_i_glide_posenum>
24

> <r_i_glide_eff_state_penalty>
0

> <i_f3d_flags>
0

> <s_m_subgroup_title>
dock_pv

> <s_m_subgroupid>
dock_pv1

> <b_m_subgroup_collapsed>
0

$$$$
192154
                    3D
 Schrodinger Suite 2021-1.
 27 28  0  0  1  0            999 V2000
   36.1649   32.8372   -0.7433 C   0  0  0  0  0  0
   36.7769   33.4882    0.5099 C   0  0  0  0  0  0
   36.0352   32.8683    1.7181 C   0  0  1  0  0  0
   34.6800   32.4247    1.1188 C   0  0  2  0  0  0
   35.1669   31.8046   -0.1845 C   0  0  2  0  0  0
   35.8626   30.4770    0.1551 C   0  0  0  0  0  0
   37.0567   30.5781    1.1563 C   0  0  1  0  0  0
   36.8626   31.6618    2.2494 C   0  0  1  0  0  0
   38.1402   32.0769    2.7309 O   0  0  0  0  0  0
   37.3937   29.3374    1.7550 O   0  0  0  0  0  0
   33.7151   33.4959    0.8775 N   0  0  0  0  0  0
   35.7940   33.6770    2.8466 O   0  0  0  0  0  0
   36.9192   32.3858   -1.3906 H   0  0  0  0  0  0
   35.6401   33.5875   -1.3370 H   0  0  0  0  0  0
   36.6177   34.5435    0.4763 H   0  0  0  0  0  0
   37.8593   33.3621    0.5465 H   0  0  0  0  0  0
   34.1979   31.6821    1.7565 H   0  0  0  0  0  0
   34.3499   31.6142   -0.8832 H   0  0  0  0  0  0
   35.1311   29.7591    0.5268 H   0  0  0  0  0  0
   36.2193   30.0770   -0.7905 H   0  0  0  0  0  0
   37.9314   30.8358    0.5550 H   0  0  0  0  0  0
   36.3327   31.2226    3.0979 H   0  0  0  0  0  0
   38.0743   32.9736    3.1165 H   0  0  0  0  0  0
   36.6667   29.0962    2.3465 H   0  0  0  0  0  0
   32.8225   33.0788    0.6528 H   0  0  0  0  0  0
   33.5853   33.9770    1.7566 H   0  0  0  0  0  0
   36.5421   34.2866    2.9550 H   0  0  0  0  0  0
  1  5  1  0  0  0
  1  2  1  0  0  0
  1 13  1  0  0  0
  1 14  1  0  0  0
  2  3  1  0  0  0
  2 15  1  0  0  0
  2 16  1  0  0  0
  3  8  1  0  0  0
  3  4  1  0  0  0
  3 12  1  0  0  0
  4  5  1  0  0  0
  4 11  1  0  0  0
  4 17  1  0  0  0
  5  6  1  0  0  0
  5 18  1  0  0  0
  6  7  1  0  0  0
  6 19  1  0  0  0
  6 20  1  0  0  0
  7  8  1  0  0  0
  7 10  1  0  0  0
  7 21  1  0  0  0
  8  9  1  0  0  0
  8 22  1  0  0  0
  9 23  1  0  0  0
 10 24  1  0  0  0
 11 25  1  0  0  0
 11 26  1  0  0  0
 12 27  1  0  0  0
M  END
> <s_m_entry_id>
3497

> <s_m_entry_name>
ligand_docking-pose.2

> <s_m_Source_Path>
/home/csk/Desktop/cluster/DUD-E-result/glcm

> <s_m_Source_File>
ligand_docking-pose.sdf

> <i_m_Source_File_Index>
2

> <i_lp_mmshare_version>
53161

> <r_lp_tautomer_probability>
1

> <s_lp_Force_Field>
OPLS_2005

> <r_lp_Energy>
54.822027

> <b_lp_Chiralities_Consistent>
1

> <s_lp_Variant>
192154-2

> <s_i_glide_gridfile>
glide-grid_2v3f

> <i_i_glide_lignum>
320

> <i_i_glide_rotatable_bonds>
3

> <r_i_docking_score>
-7.19609943522726

> <r_i_glide_ligand_efficiency>
-0.599674952935605

> <r_i_glide_ligand_efficiency_sa>
-1.37291291791858

> <r_i_glide_ligand_efficiency_ln>
-2.06493319861667

> <r_i_glide_gscore>
-7.19609943522726

> <r_i_glide_lipo>
-0.75708626098452

> <r_i_glide_hbond>
0

> <r_i_glide_metal>
0

> <r_i_glide_rewards>
-2.91137373752093

> <r_i_glide_evdw>
-11.8082113265991

> <r_i_glide_ecoul>
-19.5815258026123

> <r_i_glide_erotb>
0

> <r_i_glide_esite>
0

> <r_i_glide_emodel>
-45.6242710598225

> <r_i_glide_energy>
-31.3897371292114

> <r_i_glide_einternal>
0.962589025497437

> <i_i_glide_confnum>
1

> <i_i_glide_posenum>
115

> <r_i_glide_eff_state_penalty>
0

> <i_f3d_flags>
0

> <s_m_subgroup_title>
dock_pv

> <s_m_subgroupid>
dock_pv1

> <b_m_subgroup_collapsed>
0

$$$$
88309
                    3D
 Schrodinger Suite 2021-1.
 76 77  0  0  1  0            999 V2000
   42.9939   34.5335   -8.8071 C   0  0  0  0  0  0
   41.5753   34.9078   -8.3667 C   0  0  0  0  0  0
   41.0752   36.1986   -9.0424 C   0  0  0  0  0  0
   39.6772   36.6492   -8.5806 C   0  0  0  0  0  0
   39.6440   37.1843   -7.1340 C   0  0  0  0  0  0
   38.2647   37.6921   -6.6734 C   0  0  0  0  0  0
   37.1965   36.5858   -6.6069 C   0  0  0  0  0  0
   35.8623   37.0537   -5.9918 C   0  0  0  0  0  0
   34.7034   36.0350   -6.1058 C   0  0  0  0  0  0
   34.9526   34.7038   -5.3830 C   0  0  0  0  0  0
   35.7773   33.9071   -5.8232 O   0  0  0  0  0  0
   34.2159   34.4770   -4.2844 N   0  0  0  0  0  0
   34.2465   33.3023   -3.3962 C   0  0  2  0  0  0
   35.6618   33.0177   -2.8113 C   0  0  0  0  0  0
   35.5507   32.0880   -1.6965 N   0  0  2  0  0  0
   36.0605   32.5172   -0.3953 C   0  0  2  0  0  0
   37.5499   32.2032   -0.2310 C   0  0  0  0  0  0
   38.1545   31.7904    0.9142 C   0  0  0  0  0  0
   37.3630   31.5960    2.2165 C   0  0  1  0  0  0
   35.9075   32.1522    2.1321 C   0  0  2  0  0  0
   35.2610   31.8692    0.7594 C   0  0  2  0  0  0
   35.1651   30.4770    0.5550 O   0  0  0  0  0  0
   35.7940   33.5367    2.4310 O   0  0  0  0  0  0
   37.3941   30.2166    2.5550 O   0  0  0  0  0  0
   39.6444   31.4343    1.0001 C   0  0  0  0  0  0
   40.1202   30.8770   -0.2053 O   0  0  0  0  0  0
   33.4493   32.0589   -3.9312 C   0  0  2  0  0  0
   34.2428   31.1205   -4.8473 C   0  0  0  0  0  0
   34.9961   30.0860   -4.2803 C   0  0  0  0  0  0
   35.7692   29.2590   -5.0866 C   0  0  0  0  0  0
   35.7721   29.4450   -6.4656 C   0  0  0  0  0  0
   35.0061   30.4529   -7.0455 C   0  0  0  0  0  0
   34.2409   31.2888   -6.2377 C   0  0  0  0  0  0
   32.2309   32.5025   -4.5154 O   0  0  0  0  0  0
   33.6688   33.6588   -2.5420 H   0  0  0  0  0  0
   33.1421   31.4671   -3.0664 H   0  0  0  0  0  0
   43.3643   33.6770   -8.2450 H   0  0  0  0  0  0
   43.6928   35.3545   -8.6450 H   0  0  0  0  0  0
   43.0197   34.2848   -9.8686 H   0  0  0  0  0  0
   40.8969   34.0844   -8.5947 H   0  0  0  0  0  0
   41.5598   35.0136   -7.2835 H   0  0  0  0  0  0
   41.7897   37.0061   -8.8733 H   0  0  0  0  0  0
   41.0544   36.0429  -10.1222 H   0  0  0  0  0  0
   39.3208   37.4313   -9.2526 H   0  0  0  0  0  0
   38.9825   35.8164   -8.6958 H   0  0  0  0  0  0
   39.9780   36.4105   -6.4427 H   0  0  0  0  0  0
   40.3646   37.9985   -7.0450 H   0  0  0  0  0  0
   38.3743   38.1408   -5.6846 H   0  0  0  0  0  0
   37.9282   38.4948   -7.3313 H   0  0  0  0  0  0
   37.0065   36.1985   -7.6087 H   0  0  0  0  0  0
   37.5935   35.7518   -6.0265 H   0  0  0  0  0  0
   36.0138   37.3250   -4.9446 H   0  0  0  0  0  0
   35.5513   37.9743   -6.4884 H   0  0  0  0  0  0
   33.7940   36.4969   -5.7169 H   0  0  0  0  0  0
   34.4967   35.8204   -7.1548 H   0  0  0  0  0  0
   33.5739   35.2145   -4.0070 H   0  0  0  0  0  0
   36.3307   32.6028   -3.5667 H   0  0  0  0  0  0
   36.1163   33.9509   -2.4791 H   0  0  0  0  0  0
   35.9389   31.1701   -1.8839 H   0  0  0  0  0  0
   35.9426   33.5989   -0.3112 H   0  0  0  0  0  0
   38.1735   32.3183   -1.1020 H   0  0  0  0  0  0
   37.8757   32.0964    3.0373 H   0  0  0  0  0  0
   35.3264   31.6776    2.9231 H   0  0  0  0  0  0
   34.2365   32.2456    0.7416 H   0  0  0  0  0  0
   34.9938   30.0770    1.4312 H   0  0  0  0  0  0
   36.5675   33.8405    2.9301 H   0  0  0  0  0  0
   36.6522   29.9932    3.1331 H   0  0  0  0  0  0
   40.2259   32.3147    1.2753 H   0  0  0  0  0  0
   39.8141   30.6731    1.7584 H   0  0  0  0  0  0
   39.6070   30.0658   -0.3748 H   0  0  0  0  0  0
   34.9976   29.9236   -3.2122 H   0  0  0  0  0  0
   36.3654   28.4769   -4.6402 H   0  0  0  0  0  0
   36.3754   28.8018   -7.0894 H   0  0  0  0  0  0
   35.0161   30.5939   -8.1162 H   0  0  0  0  0  0
   33.6714   32.0848   -6.6934 H   0  0  0  0  0  0
   32.4430   33.3526   -4.9166 H   0  0  0  0  0  0
  1  2  1  0  0  0
  1 37  1  0  0  0
  1 38  1  0  0  0
  1 39  1  0  0  0
  2  3  1  0  0  0
  2 40  1  0  0  0
  2 41  1  0  0  0
  3  4  1  0  0  0
  3 42  1  0  0  0
  3 43  1  0  0  0
  4  5  1  0  0  0
  4 44  1  0  0  0
  4 45  1  0  0  0
  5  6  1  0  0  0
  5 46  1  0  0  0
  5 47  1  0  0  0
  6  7  1  0  0  0
  6 48  1  0  0  0
  6 49  1  0  0  0
  7  8  1  0  0  0
  7 50  1  0  0  0
  7 51  1  0  0  0
  8  9  1  0  0  0
  8 52  1  0  0  0
  8 53  1  0  0  0
  9 10  1  0  0  0
  9 54  1  0  0  0
  9 55  1  0  0  0
 10 11  2  0  0  0
 10 12  1  0  0  0
 12 13  1  0  0  0
 12 56  1  0  0  0
 13 35  1  0  0  0
 13 14  1  0  0  0
 13 27  1  0  0  0
 14 15  1  0  0  0
 14 57  1  0  0  0
 14 58  1  0  0  0
 15 16  1  0  0  0
 15 59  1  0  0  0
 16 21  1  0  0  0
 16 17  1  0  0  0
 16 60  1  0  0  0
 17 18  2  0  0  0
 17 61  1  0  0  0
 18 19  1  0  0  0
 18 25  1  0  0  0
 19 20  1  0  0  0
 19 24  1  0  0  0
 19 62  1  0  0  0
 20 21  1  0  0  0
 20 23  1  0  0  0
 20 63  1  0  0  0
 21 22  1  0  0  0
 21 64  1  0  0  0
 22 65  1  0  0  0
 23 66  1  0  0  0
 24 67  1  0  0  0
 25 26  1  0  0  0
 25 68  1  0  0  0
 25 69  1  0  0  0
 26 70  1  0  0  0
 27 36  1  0  0  0
 27 28  1  0  0  0
 27 34  1  0  0  0
 28 33  1  0  0  0
 28 29  2  0  0  0
 29 30  1  0  0  0
 29 71  1  0  0  0
 30 31  2  0  0  0
 30 72  1  0  0  0
 31 32  1  0  0  0
 31 73  1  0  0  0
 32 33  2  0  0  0
 32 74  1  0  0  0
 33 75  1  0  0  0
 34 76  1  0  0  0
M  END
> <s_m_entry_id>
3498

> <s_m_entry_name>
ligand_docking-pose.3

> <s_m_Source_Path>
/home/csk/Desktop/cluster/DUD-E-result/glcm

> <s_m_Source_File>
ligand_docking-pose.sdf

> <i_m_Source_File_Index>
3

> <i_lp_mmshare_version>
53161

> <r_lp_tautomer_probability>
1

> <s_lp_Force_Field>
OPLS_2005

> <r_lp_Energy>
39.141495

> <b_lp_Chiralities_Consistent>
1

> <s_lp_Variant>
88309-13

> <s_i_glide_gridfile>
glide-grid_2v3f

> <i_i_glide_lignum>
266

> <i_i_glide_rotatable_bonds>
21

> <r_i_docking_score>
-7.18106252971779

> <r_i_glide_ligand_efficiency>
-0.211207721462288

> <r_i_glide_ligand_efficiency_sa>
-0.684231026165874

> <r_i_glide_ligand_efficiency_ln>
-1.586498134796

> <r_i_glide_gscore>
-7.18106252971779

> <r_i_glide_lipo>
-1.86789309782967

> <r_i_glide_hbond>
-1.27421826420647

> <r_i_glide_metal>
0

> <r_i_glide_rewards>
-0.145761634460594

> <r_i_glide_evdw>
-34.884407043457

> <r_i_glide_ecoul>
-22.3741493225098

> <r_i_glide_erotb>
1.23853243040519

> <r_i_glide_esite>
-0.0313792130769223

> <r_i_glide_emodel>
-77.6808719355762

> <r_i_glide_energy>
-57.2585563659668

> <r_i_glide_einternal>
17.2611427307129

> <i_i_glide_confnum>
149

> <i_i_glide_posenum>
297

> <r_i_glide_eff_state_penalty>
0

> <i_f3d_flags>
0

> <s_m_subgroup_title>
dock_pv

> <s_m_subgroupid>
dock_pv1

> <b_m_subgroup_collapsed>
0

$$$$
